Version 4
SHEET 1 1132 708
WIRE 432 -64 416 -64
WIRE 512 -64 496 -64
WIRE 336 16 320 16
WIRE 416 16 416 -64
WIRE 432 16 416 16
WIRE 512 16 512 -64
WIRE 528 16 512 16
WIRE 704 16 608 16
WIRE 464 80 464 64
WIRE 640 80 560 80
WIRE 704 80 704 16
WIRE 256 128 128 128
WIRE 192 160 192 112
WIRE 560 160 560 80
WIRE 560 160 464 160
WIRE 592 160 560 160
WIRE -64 176 -128 176
WIRE 32 176 16 176
WIRE 112 176 96 176
WIRE 128 176 128 128
WIRE 160 176 128 176
WIRE 704 176 704 80
WIRE 704 176 656 176
WIRE 256 192 256 128
WIRE 256 192 224 192
WIRE 320 192 320 16
WIRE 592 192 576 192
WIRE -128 208 -128 176
WIRE 112 208 112 176
WIRE 128 208 112 208
WIRE 160 208 128 208
WIRE 704 208 704 176
WIRE 864 208 848 208
WIRE 128 240 128 208
WIRE 192 240 192 224
WIRE 928 256 912 256
WIRE 320 288 320 192
WIRE 352 288 320 288
WIRE 528 288 496 288
WIRE 704 288 704 208
WIRE 704 288 592 288
WIRE -128 320 -128 288
WIRE 864 320 864 288
WIRE 560 448 512 448
WIRE 608 448 560 448
WIRE 656 448 608 448
WIRE 752 448 656 448
WIRE 560 464 560 448
WIRE 608 528 608 448
WIRE 656 528 656 448
WIRE 752 528 752 448
WIRE 464 560 448 560
WIRE 560 560 560 544
WIRE 560 560 464 560
WIRE 560 576 560 560
WIRE 464 592 464 560
WIRE 464 672 464 656
WIRE 560 672 560 656
WIRE 560 672 464 672
WIRE 608 672 608 592
WIRE 608 672 560 672
WIRE 656 672 656 592
WIRE 656 672 608 672
WIRE 752 672 752 608
WIRE 752 672 656 672
WIRE 752 688 752 672
FLAG 192 240 0
FLAG -128 320 0
FLAG 128 320 Vref
FLAG 192 112 +5V
FLAG 624 208 0
FLAG 624 144 +5V
FLAG 928 336 0
FLAG 512 448 +5V
FLAG 752 688 0
FLAG 448 560 Vref
FLAG 576 192 Vref
FLAG 864 320 0
SYMBOL Opamps\\UniversalOpamp2 192 192 R0
SYMATTR InstName U1
SYMBOL Opamps\\UniversalOpamp2 624 176 R0
SYMATTR InstName U2
SYMBOL res 112 224 R0
SYMATTR InstName R1
SYMATTR Value 5Meg
SYMBOL cap 96 160 R90
WINDOW 0 0 32 VBottom 2
WINDOW 3 32 32 VTop 2
SYMATTR InstName C1
SYMATTR Value 0.1µF
SYMBOL res 32 160 R90
WINDOW 0 0 56 VBottom 2
WINDOW 3 32 56 VTop 2
SYMATTR InstName R2
SYMATTR Value 1K
SYMBOL voltage -128 192 R0
WINDOW 123 24 152 Left 2
WINDOW 39 24 124 Left 2
SYMATTR Value2 AC 1
SYMATTR InstName V1
SYMATTR Value SINE(0 0.01 1000)
SYMBOL polcap 256 208 R270
WINDOW 0 32 32 VTop 2
WINDOW 3 0 32 VBottom 2
SYMATTR InstName C2
SYMATTR Value 2.2µ
SYMBOL potentiometer 528 0 R90
WINDOW 0 -65 255 VRight 2
WINDOW 3 -86 172 VRight 2
SYMATTR InstName U4
SYMATTR Value Rtot=50K wiper=.5
SYMBOL potentiometer 400 304 R270
WINDOW 0 54 21 VRight 2
WINDOW 3 -38 21 VRight 2
SYMATTR InstName U5
SYMATTR Value Rtot=50K wiper={w}
SYMBOL cap 496 -80 R90
WINDOW 0 0 32 VBottom 2
WINDOW 3 32 32 VTop 2
SYMATTR InstName C4
SYMATTR Value 47n
SYMBOL res 432 0 R90
WINDOW 0 0 56 VBottom 2
WINDOW 3 32 56 VTop 2
SYMATTR InstName R3
SYMATTR Value 10K
SYMBOL res 624 0 R90
WINDOW 0 0 56 VBottom 2
WINDOW 3 32 56 VTop 2
SYMATTR InstName R4
SYMATTR Value 10K
SYMBOL res 448 64 R0
SYMATTR InstName R5
SYMATTR Value 39K
SYMBOL res 448 144 R0
SYMATTR InstName R6
SYMATTR Value 39K
SYMBOL cap 416 272 R90
WINDOW 0 0 32 VBottom 2
WINDOW 3 32 32 VTop 2
SYMATTR InstName C5
SYMATTR Value 4.7nF
SYMBOL cap 592 272 R90
WINDOW 0 0 32 VBottom 2
WINDOW 3 32 32 VTop 2
SYMATTR InstName C6
SYMATTR Value 4.7nF
SYMBOL cap 704 64 R90
WINDOW 0 0 32 VBottom 2
WINDOW 3 32 32 VTop 2
SYMATTR InstName C7
SYMATTR Value 47pF
SYMBOL res 800 192 R90
WINDOW 0 0 56 VBottom 2
WINDOW 3 32 56 VTop 2
SYMATTR InstName R7
SYMATTR Value 500
SYMBOL polcap 784 224 R270
WINDOW 0 32 32 VTop 2
WINDOW 3 0 32 VBottom 2
SYMATTR InstName C8
SYMATTR Value 10µF
SYMBOL res 912 240 R0
SYMATTR InstName R8
SYMATTR Value 100K
SYMBOL polcap 592 528 R0
SYMATTR InstName C9
SYMATTR Value 10µ
SYMBOL voltage 752 512 R0
WINDOW 123 0 0 Left 2
WINDOW 39 0 0 Left 2
SYMATTR InstName V2
SYMATTR Value 5
SYMBOL res 544 448 R0
WINDOW 0 -35 33 Left 2
WINDOW 3 -56 65 Left 2
SYMATTR InstName R9
SYMATTR Value 100K
SYMBOL res 544 560 R0
WINDOW 0 -43 28 Left 2
WINDOW 3 -54 73 Left 2
SYMATTR InstName R10
SYMATTR Value 100K
SYMBOL cap 448 592 R0
WINDOW 0 -41 8 Left 2
WINDOW 3 -39 53 Left 2
SYMATTR InstName C10
SYMATTR Value 1µ
SYMBOL cap 640 528 R0
SYMATTR InstName C11
SYMATTR Value 100n
SYMBOL potentiometer 848 192 R0
WINDOW 3 -128 155 Left 2
SYMATTR Value Rtot=50K wiper=1
SYMATTR InstName U6
TEXT -288 -48 Left 2 !.ac oct 500 10 20k
TEXT -296 -8 Left 2 !.step lin param w 0 1 0.1
TEXT -328 -88 Left 2 !.include potentiometer_standard.lib
